14
	Energy:      22.6776366
C         -2.47655        3.30296       -0.00000
C         -1.19548        2.53958        0.00000
C         -1.17541        1.13367       -0.00000
C         -2.43415        0.33402        0.00000
C          0.04882        0.45948        0.00000
C          1.25335        1.16918       -0.00000
C          1.23329        2.57344        0.00000
C          0.00899        3.24846       -0.00000
C          2.49198        3.38355        0.00000
C          3.76745        2.58347       -0.00000
C          3.78676        1.23153        0.00000
C          2.53466        0.39535       -0.00000
C          5.04071        3.37007        0.00000
C          5.08197        0.48162       -0.00000
